data118.m
busdata=[1.000 	3.000 	0.955 	0.510 	0.270 	0.000 	0.000	-0.500 	0.1500 	0.000 	;
2.000 	2.000 	1.000 	0.200 	0.090 	0.000 	0.000 	0.000 	0.000 	0.000 	;
3.000 	2.000 	1.000	0.390 	0.100 	0.000 	0.000 	0.000 	0.000 	0.000 	;
4.000 	3.000 	0.998 	0.300 	0.120 	-0.090 	0.000 	-3.000 	3.000 	0.000 	;
5.000 	2.000 	1.000 	0.000 	0.000 	0.000 	0.000 	0.000 	0.000 	-0.400 	;
6.000 	3.000 	0.990 	0.520 	0.220 	0.000 	0.000 	-0.130 	0.500 	0.000 	;
7.000 	2.000 	1.000 	0.190 	0.020 	0.000 	0.000 	0.000 	0.000 	0.000 	;
8.000 	3.000 	1.015 	0.000 	0.000 	-0.280 	0.000 	-3.000 	3.000 	0.000 	;
9.000 	2.000 	1.000 	0.000 	0.000 	0.000 	0.000 	0.000 	0.000 	0.000 	;
10.000 	3.000 	1.050 	0.000 	0.000 	4.500 	0.000 	-1.470 	2.000 	0.000 	;
11.000 	2.000 	1.000	0.700 	0.230 	0.000 	0.000 	0.000 	0.000 	0.000 	;
12.000 	3.000 	0.990 	0.470 	0.100 	0.850 	0.000 	-0.350 	1.200 	0.000 	;
13.000 	2.000 	1.000 	0.340 	0.160 	0.000 	0.000 	0.000 	0.000 	0.000 	;
14.000 	2.000 	1.000	0.140 	0.010 	0.000 	0.000 	0.000 	0.000 	0.000 	;
15.000 	3.000 	0.970 	0.900 	0.300 	0.000 	0.000 	-0.100 	0.300 	0.000 	;
16.000 	2.000 	1.000	0.250 	0.100 	0.000 	0.000 	0.000 	0.000 	0.000 	;
17.000 	2.000 	1.000	0.110 	0.030 	0.000 	0.000 	0.000 	0.000 	0.000 	;
18.000 	3.000 	0.973 	0.600 	0.340 	0.000 	0.000 	-0.160 	0.500 	0.000 	;
19.000 	3.000 	0.962 	0.450 	0.250 	0.000 	0.000 	-0.080 	0.240 	0.000 	;
20.000 	2.000 	1.000	0.180 	0.030 	0.000 	0.000 	0.000 	0.000 	0.000 	;
21.000 	2.000 	1.000 	0.140 	0.080 	0.000 	0.000 	0.000 	0.000 	0.000 	;
22.000 	2.000 	1.000	0.100 	0.050 	0.000 	0.000 	0.000 	0.000 	0.000 	;
23.000 	2.000 	1.000 	0.070 	0.030 	0.000 	0.000 	0.000 	0.000 	0.000 	;
24.000 	3.000 	0.992 	0.000 	0.000 	-0.130 	0.000 	-3.000 	3.000 	0.000 	;
25.000 	3.000 	1.050 	0.000 	0.000 	2.200 	0.000 	-0.470 	1.400 	0.000 	;
26.000 	3.000 	1.015 	0.000 	0.000 	3.140 	0.000 	-10.000 10.000 	0.000 	;
27.000 	3.000 	0.968 	0.620 	0.130 	0.090 	0.000 	-3.000 	3.000 	0.000 	;
28.000 	2.000 	1.000 	0.170 	0.070 	0.000 	0.000 	0.000 	0.000 	0.000 	;
29.000 	2.000 	1.000	0.240 	0.040 	0.000 	0.000 	0.000 	0.000 	0.000 	;
30.000 	2.000 	1.000	0.000 	0.000 	0.000 	0.000 	0.000 	0.000 	0.000 	;
31.000 	3.000 	0.967 	0.430 	0.270 	0.070 	0.000 	-3.000 	3.000 	0.000 	;
32.000 	3.000 	0.963 	0.590 	0.230 	0.000 	0.000 	-0.140 	0.420 	0.000 	;
33.000 	2.000 	1.000	0.230 	0.090 	0.000 	0.000 	0.000 	0.000 	0.000 	;
34.000 	3.000 	0.984 	0.590 	0.260 	0.000 	0.000 	-0.080 	0.240 	0.140 	;
35.000 	2.000 	1.000	0.330 	0.090 	0.000 	0.000 	0.000 	0.000 	0.000 	;
36.000 	3.000 	0.980 	0.310 	0.170 	0.000 	0.000 	-0.080 	0.240 	0.000 	;
37.000 	2.000 	1.000	0.000 	0.000 	0.000 	0.000 	0.000 	0.000 	-0.250 	;
38.000 	2.000 	1.000	0.000 	0.000 	0.000 	0.000 	0.000 	0.000 	0.000 	;
39.000 	2.000 	1.000 	0.270 	0.110 	0.000 	0.000 	0.000 	0.000 	0.000 	;
40.000 	3.000 	0.970 	0.200 	0.230 	-0.460 	0.000 	-3.000 	3.000 	0.000 	;
41.000 	2.000 	1.000	0.370 	0.100 	0.000 	0.000 	0.000 	0.000 	0.000 	;
42.000 	3.000 	0.985 	0.370 	0.230 	-0.590 	0.000 	-3.000 	3.000 	0.000 	;
43.000 	2.000 	1.000	0.180 	0.070 	0.000 	0.000 	0.000 	0.000 	0.000 	;
44.000 	2.000 	1.000 	0.160 	0.080 	0.000 	0.000 	0.000 	0.000 	0.100 	;
45.000 	2.000 	1.000 	0.530 	0.220 	0.000 	0.000 	0.000 	0.000 	0.100 	;
46.000 	3.000 	1.005 	0.280 	0.100 	0.190 	0.000 	-1.000 	1.000 	0.100 	;
47.000 	2.000 	1.000	0.340 	0.000 	0.000 	0.000 	0.000 	0.000 	0.000 	;
48.000 	2.000 	1.000 	0.200 	0.110 	0.000 	0.000 	0.000 	0.000 	0.150 	;
49.000 	3.000 	1.025 	0.870 	0.300 	2.040 	0.000 	-0.850 	2.100 	0.000 	;
50.000 	2.000 	1.000 	0.170 	0.040 	0.000 	0.000 	0.000 	0.000 	0.000 	;
51.000 	2.000 	1.000 	0.170 	0.080 	0.000 	0.000 	0.000 	0.000 	0.000 	;
52.000 	2.000 	1.000 	0.180 	0.050 	0.000 	0.000 	0.000 	0.000 	0.000 	;
53.000 	2.000 	1.000	0.230 	0.110 	0.000 	0.000 	0.000 	0.000 	0.000 	;
54.000 	3.000 	0.955 	1.130 	0.320 	0.480 	0.000 	-3.000 	3.000 	0.000 	;
55.000 	3.000 	0.952 	0.630 	0.220 	0.000 	0.000 	-0.080 	0.230 	0.000 	;
56.000 	3.000 	0.954 	0.840 	0.180 	0.000 	0.000 	-0.080 	0.150 	0.000 	;
57.000 	2.000 	1.000	0.120 	0.030 	0.000 	0.000 	0.000 	0.000 	0.000 	;
58.000 	2.000 	1.000	0.120 	0.030 	0.000 	0.000 	0.000 	0.000 	0.000 	;
59.000 	3.000 	0.985 	2.770 	1.130 	1.550 	0.000 	-0.600 	1.800 	0.000 	;
60.000 	2.000 	1.000	0.780 	0.030 	0.000 	0.000 	0.000 	0.000 	0.000 	;
61.000 	3.000 	0.995 	0.000 	0.000 	1.600 	0.000 	-1.000 	3.000 	0.000 	;
62.000 	3.000 	0.998 	0.770 	0.140 	0.000 	0.000 	-0.200 	0.200 	0.000 	;
63.000 	2.000 	1.000 	0.000 	0.000 	0.000 	0.000 	0.000 	0.000 	0.000 	;
64.000 	2.000   1.000	0.000 	0.000 	0.000 	0.000 	0.000 	0.000 	0.000 	;
65.000 	3.000 	1.005 	0.000 	0.000 	3.910 	0.000 	-0.670 	2.000 	0.000 	;
66.000 	3.000 	1.050 	0.390 	0.180 	3.920 	0.000 	-0.670 	2.000 	0.000 	;
67.000 	2.000 	1.000	0.280 	0.070 	0.000 	0.000 	0.000 	0.000 	0.000 	;
68.000 	2.000 	1.000 	0.000 	0.000 	0.000 	0.000 	0.000 	0.000 	0.000 	;
69.000 	1.000 	1.035 	0.000 	0.000 	5.160 	0.000 	-3.000 	3.000 	0.000 	;
70.000 	3.000 	0.984 	0.660 	0.200 	0.000 	0.000 	-0.100 	0.320 	0.000 	;
71.000 	2.000 	1.000 	0.000 	0.000 	0.000 	0.000 	0.000 	0.000 	0.000 	;
72.000 	3.000 	0.980 	0.000 	0.000 	-0.120 	0.000 	-1.000 	1.000 	0.000 	;
73.000 	3.000 	0.991 	0.000 	0.000 	-0.060 	0.000 	-1.000 	1.000 	0.000 	;
74.000 	3.000 	0.958 	0.680 	0.270 	0.000 	0.000 	-0.060 	0.090 	0.120 	;
75.000 	2.000 	1.000	0.470 	0.110 	0.000 	0.000 	0.000 	0.000 	0.000 	;
76.000 	3.000 	0.943 	0.680 	0.360 	0.000 	0.000 	-0.080 	0.230 	0.000 	;
77.000 	3.000 	1.006 	0.610 	0.280 	0.000 	0.000 	-0.200 	0.700 	0.000 	;
78.000 	2.000 	1.000 	0.710 	0.260 	0.000 	0.000 	0.000 	0.000 	0.000 	;
79.000 	2.000 	1.000 	0.390 	0.320 	0.000 	0.000 	0.000 	0.000 	0.200 	;
80.000 	3.000 	1.040 	1.300 	0.260 	4.770 	0.000 	-1.650 	2.800 	0.000 	;
81.000 	2.000 	1.000	0.000 	0.000 	0.000 	0.000 	0.000 	0.000 	0.000 	;
82.000 	2.000 	1.000	0.540 	0.270 	0.000 	0.000 	0.000 	0.000 	0.200 	;
83.000 	2.000 	1.000 	0.200 	0.100 	0.000 	0.000 	0.000 	0.000 	0.100 	;
84.000 	2.000 	1.000	0.110 	0.070 	0.000 	0.000 	0.000 	0.000 	0.000 	;
85.000 	3.000 	0.985 	0.240 	0.150 	0.000 	0.000 	-0.080 	0.230 	0.000 	;
86.000 	2.000 	1.000 	0.210 	0.100 	0.000 	0.000 	0.000 	0.000 	0.000 	;
87.000 	3.000 	1.015 	0.000 	0.000 	0.040 	0.000 	-1.000 	10.000 	0.000 	;
88.000 	2.000 	1.000 	0.480 	0.100 	0.000 	0.000 	0.000 	0.000 	0.000 	;
89.000 	3.000 	1.005 	0.000 	0.000 	6.070 	0.000 	-2.100 	3.000 	0.000 	;
90.000 	3.000 	0.985 	0.780 	0.420 	-0.85 	0.000 	-3.000 	3.000 	0.000 	;
91.000 	3.000 	0.980 	0.000 	0.000 	-0.10 	0.000 	-1.000 	1.000 	0.000 	;
92.000 	3.000 	0.990 	0.650 	0.100 	0.000 	0.000 	-0.030 	0.090 	0.000 	;
93.000 	2.000 	1.000 	0.120 	0.070 	0.000 	0.000 	0.000 	0.000 	0.000 	;
94.000 	2.000 	1.000	0.300 	0.160 	0.000 	0.000 	0.000 	0.000 	0.000 	;
95.000 	2.000 	1.000 	0.420 	0.310 	0.000 	0.000 	0.000 	0.000 	0.000 	;
96.000 	2.000 	1.000 	0.380 	0.150 	0.000 	0.000 	0.000 	0.000 	0.000 	;
97.000 	2.000 	1.000 	0.150 	0.090 	0.000 	0.000 	0.000 	0.000 	0.000 	;
98.000 	2.000 	1.000 	0.340 	0.080 	0.000 	0.000 	0.000 	0.000 	0.000 	;
99.000 	3.000 	1.010 	0.000 	0.000 	-0.420 	0.000 	-1.000 	1.000 	0.000 	;
100.000 	3.000 	1.017 	0.370 	0.180 	2.520 	0.000 	-0.500 	1.550 	0.000 	;
101.000 	2.000 	1.000	0.220 	0.150 	0.000 	0.000 	0.000 	0.000 	0.000 	;
102.000 	2.000 	1.000	0.050 	0.030 	0.000 	0.000 	0.000 	0.000 	0.000 	;
103.000 	3.000 	1.01 	0.230 	0.160 	0.400 	0.000 	-0.150 	0.400 	0.000 	;
104.000 	3.000 	0.971 	0.380 	0.250 	0.000 	0.000 	-0.080 	0.230 	0.000 	;
105.000 	3.000 	0.965 	0.310 	0.260 	0.000 	0.000 	-0.080 	0.230 	0.200 	;
106.000 	2.000 	1.000 	0.430 	0.160 	0.000 	0.000 	0.000 	0.000 	0.000 	;
107.000 	3.000 	0.952 	0.280 	0.120 	-0.22	0.000 	-2.000 	2.000 	0.060 	;
108.000 	2.000 	1.000	0.020 	0.010 	0.000 	0.000 	0.000 	0.000 	0.000 	;
109.000 	2.000 	1.000	0.080 	0.030 	0.000 	0.000 	0.000 	0.000 	0.000 	;
110.000 	3.000 	0.973 	0.390 	0.300 	0.000 	0.000 	-0.080 	0.230 	0.060 	;
111.000 	3.000 	0.980 	0.000 	0.000 	0.360 	0.000 	-1.000 	10.000 	0.000 	;
112.000 	3.000 	0.975 	0.250 	0.130 	-0.43 	0.000 	-1.000 	10.000 	0.000 	;
113.000 	3.000 	0.993 	0.000 	0.000 	-0.06	0.000 	-1.000 	2.000 	0.000 	;
114.000 	2.000 	1.000 	0.080 	0.030 	0.000 	0.000 	0.000 	0.000 	0.000 	;
115.000 	2.000 	1.000	0.220 	0.070 	0.000 	0.000 	0.000 	0.000 	0.000 	;
116.000 	3.000 	1.005 	0.000 	0.000 	-1.84 	0.000 	-10.000 10.000 	0.000 	;
117.000 	2.000 	1.000 	0.200 	0.080 	0.000 	0.000 	0.000 	0.000 	0.000 	;
118.000 	2.000 	1.000	0.330 	0.150 	0.000 	0.000 	0.000 	0.000 	0.000 	];


linedata=[1    1    2     0.03030   0.09990    0.01270     1     1;
2    1    3     0.01290   0.04240    0.00541     1     1;
3    4    5     0.00176   0.00798    0.00105     1     1;
4    3    5     0.02410   0.10800    0.01420     1     1;
5    5    6     0.01190   0.05400    0.00713     1     1;
6    6    7     0.00459   0.02080    0.00275     1     1;
7    8    9     0.00244   0.03050    0.58100     1     1;
8    8    5     0.00000   0.02670    0.0         0.985 1;
9    9   10     0.00258   0.03220    0.61500     1     1;
10   4   11     0.02090   0.06880    0.00874     1     1;
11   5   11     0.02030   0.06820    0.00869     1     1;
12  11   12     0.00595   0.01960    0.00251     1     1;
13   2   12     0.01870   0.06160    0.00786     1     1;
14   3   12     0.04840   0.16000    0.02030     1     1;
15   7   12     0.00862   0.03400    0.00437     1     1;
16  11   13     0.02225   0.07310    0.00938     1     1;
17  12   14     0.02150   0.07070    0.00908     1     1;
18  13   15     0.07440   0.24440    0.03134     1     1;
19  14   15     0.05950   0.19500    0.02510     1     1;
20  12   16     0.02120   0.08340    0.01070     1     1;
21  15   17     0.01320   0.04370    0.02220     1     1;
22  16   17     0.04540   0.18010    0.02330     1     1;
23  17   18     0.01230   0.05050    0.00649     1     1;
24  18   19     0.01119   0.04930    0.00571     1     1;
25  19   20     0.02520   0.11700    0.01490     1     1;
26  15   19     0.01200   0.03940    0.00505     1     1;
27  20   21     0.01830   0.08490    0.01080     1     1;
28  21   22     0.02090   0.09700    0.01230     1     1;
29  22   23     0.03420   0.15900    0.02020     1     1;
30  23   24     0.01350   0.04920    0.02490     1     1;
31  23   25     0.01560   0.08000    0.04320     1     1;
32  26   25     0.00000   0.03820    0.0        0.960  1;
33  25   27     0.03180   0.16300    0.08820     1     1;
34  27   28     0.01913   0.08550    0.01080     1     1;
35  28   29     0.02370   0.09430    0.01190     1     1;
36  30   17     0.00000   0.03880    0.0        0.960  1;
37   8   30     0.00431   0.05040    0.25700     1     1;
38  26   30     0.00799   0.08600    0.45400     1     1;
39  17   31     0.04740   0.15630    0.01995     1     1;
40  29   31     0.01080   0.03310    0.00415     1     1;
41  23   32     0.03170   0.11530    0.05865     1     1;
42  31   32     0.02980   0.09850    0.01255     1     1;
43  27   32     0.02290   0.07550    0.00963     1     1;
44  15   33     0.03800   0.12440    0.01597     1     1;
45  19   34     0.07520   0.24700    0.03160     1     1;
46  35   36     0.00224   0.01020    0.00134     1     1;
47  35   37     0.01100   0.04970    0.00659     1     1;
48  33   37     0.04150   0.14200    0.01830     1     1;
49  34   36     0.00871   0.02680    0.00284     1     1;
50  34   37     0.00256   0.00940    0.00492     1     1;
51  38   37     0.00000   0.03750    0.0        0.935  1;
52  37   39     0.03210   0.10600    0.01350     1     1;
53  37   40     0.05930   0.16800    0.02100     1     1;
54  30   38     0.00464   0.05400    0.21100     1     1;
55  39   40     0.01840   0.06050    0.00776     1     1;
56  40   41     0.01450   0.04870    0.00611     1     1;
57  40   42     0.05550   0.18300    0.02330     1     1;
58  41   42     0.04100   0.13500    0.01720     1     1;
59  43   44     0.06080   0.24540    0.03034     1     1;
60  34   43     0.04130   0.16810    0.02113     1     1;
61  44   45     0.02240   0.09010    0.01120     1     1;
62  45   46     0.04000   0.13560    0.01660     1     1;
63  46   47     0.03800   0.12700    0.01580     1     1;
64  46   48     0.06010   0.18900    0.02360     1     1;
65  47   49     0.01910   0.06250    0.00802     1     1;
66  42   49     0.07150   0.32300    0.04300     1     1;
67  42   49     0.07150   0.32300    0.04300     1     1;
68  45   49     0.06840   0.18600    0.02220     1     1;
69  48   49     0.01790   0.05050    0.00629     1     1;
70  49   50     0.02670   0.07520    0.00937     1     1;
71  49   51     0.04860   0.13700    0.01710     1     1;
72  51   52     0.02030   0.05880    0.00698     1     1;
73  52   53     0.04050   0.16350    0.02029     1     1;
74  53   54     0.02630   0.12200    0.01550     1     1;
75  49   54     0.07300   0.28900    0.03690     1     1;
76  49   54     0.08690   0.29100    0.03650     1     1;  
77  54   55     0.01690   0.07070    0.01010     1     1;
78  54   56     0.00275   0.00955    0.00366     1     1;
79  55   56     0.00488   0.01510    0.00187     1     1;
80  56   57     0.03430   0.09660    0.01210     1     1;
81  50   57     0.04740   0.13400    0.01660     1     1;
82  56   58     0.03430   0.09660    0.01210     1     1;
83  51   58     0.02550   0.07190    0.00894     1     1;
84  54   59     0.05030   0.22930    0.02990     1     1;
85  56   59     0.08250   0.25100    0.02845     1     1;
86  56   59     0.08030   0.23900    0.02680     1     1;
87  55   59     0.04739   0.21580    0.02823     1     1;
88  59   60     0.03170   0.14500    0.01880     1     1;
89  59   61     0.03280   0.15000    0.01940     1     1;
90  60   61     0.00264   0.01350    0.00728     1     1;
91  60   62     0.01230   0.05610    0.00734     1     1;
92  61   62     0.00824   0.03760    0.00490     1     1;
93  63   59     0.00000   0.03860    0.0        0.960  1;
94  63   64     0.00172   0.02000    0.10800     1     1;
95  64   61     0.00000   0.02680    0.0        0.985  1;
96  38   65     0.00901   0.09860    0.52300     1     1;
97  64   65     0.00269   0.03020    0.19000     1     1;
98  49   66     0.01800   0.09190    0.01240     1     1;
99  49   66     0.01800   0.09190    0.01240     1     1;
100  62   66     0.04820   0.21800    0.02890    1     1;
101  62   67     0.02580   0.11700    0.01550    1     1;
102  65   66     0.00000   0.03700    0.0       0.935  1;
103  66   67     0.02240   0.10150    0.01341    1     1;
104  65   68     0.00138   0.01600    0.31900    1     1;
105  47   69     0.08440   0.27780    0.03546    1     1;
106  49   69     0.09850   0.32400    0.04140    1     1;
107  68   69     0.00000   0.03700    0.0       0.935  1;
108  69   70     0.03000   0.12700    0.06100    1     1;
109  24   70     0.00221   0.41150    0.05099    1     1;
110  70   71     0.00882   0.03550    0.00439    1     1;
111  24   72     0.04880   0.19600    0.02440    1     1;
112  71   72     0.04460   0.18000    0.02222    1     1;
113  71   73     0.00866   0.04540    0.00589    1     1;
114  70   74     0.04010   0.13230    0.01684    1     1;
115  70   75     0.04280   0.14100    0.01800    1     1;
116  69   75     0.04050   0.12200    0.06200    1     1;
117  74   75     0.01230   0.04060    0.00517    1     1;
118  76   77     0.04440   0.14800    0.01840    1     1;
119  69   77     0.03090   0.10100    0.05190    1     1;
120  75   77     0.06010   0.19990    0.02489    1     1;
121  77   78     0.00376   0.01240    0.00632    1     1;
122  78   79     0.00546   0.02440    0.00324    1     1;
123  77   80     0.01700   0.04850    0.02360    1     1;
124  77   80     0.02940   0.10500    0.01140    1     1;  
125  79   80     0.01560   0.07040    0.00935    1     1;
126  68   81     0.00175   0.02020    0.40400    1     1;
127  81   80     0.00000   0.03700    0.0       0.935  1;
128  77   82     0.02980   0.08530    0.04087    1     1;
129  82   83     0.01120   0.03665    0.01898    1     1;
130  83   84     0.06250   0.13200    0.01290    1     1;
131  83   85     0.04300   0.14800    0.01740    1     1;
132  84   85     0.03020   0.06410    0.00617    1     1;
133  85   86     0.03500   0.12300    0.01380    1     1;
134  86   87     0.02828   0.20740    0.02225    1     1;
135  85   88     0.02000   0.10200    0.01380    1     1;
136  85   89     0.02390   0.17300    0.02350    1     1;
137  88   89     0.01390   0.07120    0.00967    1     1;
138  89   90     0.05180   0.18800    0.02640    1     1;
139  89   90     0.02380   0.09970    0.05300    1     1;
140  90   91     0.02540   0.08360    0.01070    1     1;
141  89   92     0.00990   0.05050    0.02740    1     1;
142  89   92     0.03930   0.15810    0.02070    1     1;
143  91   92     0.03870   0.12720    0.01634    1     1;
144  92   93     0.02580   0.08480    0.01090    1     1;
145  92   94     0.04810   0.15800    0.02030    1     1;
146  93   94     0.02230   0.07320    0.00938    1     1;
147  94   95     0.01320   0.04340    0.00555    1     1;
148  80   96     0.03560   0.18200    0.02470    1     1;
149  82   96     0.01620   0.05300    0.02720    1     1;
150  94   96     0.02690   0.08690    0.01150    1     1;
151  80   97     0.01830   0.09340    0.01270    1     1;
152  80   98     0.02380   0.10800    0.01430    1     1;
153  80   99     0.04540   0.20600    0.02730    1     1;
154  92  100     0.06480   0.29500    0.02360    1     1;
155  94  100     0.01780   0.05800    0.03020    1     1;
156  95   96     0.01710   0.05470    0.00737    1     1;
157  96   97     0.01730   0.08850    0.01200    1     1;
158  98  100     0.03970   0.17900    0.02380    1     1;
159  99  100     0.01800   0.08130    0.01080    1     1;
160 100  101     0.02770   0.12620    0.01640    1     1;
161  92  102     0.01230   0.05590    0.00732    1     1;
162 101  102     0.02460   0.11200    0.01470    1     1;
163 100  103     0.01600   0.05250    0.02680    1     1;
164 100  104     0.04510   0.20400    0.02705    1     1;
165 103  104     0.04660   0.15840    0.02035    1     1;
166 103  105     0.05350   0.16250    0.02040    1     1;
167 100  106     0.06050   0.22900    0.03100    1     1;
168 104  105     0.00994   0.03780    0.00493    1     1;
169 105  106     0.01400   0.05470    0.00717    1     1;
170 105  107     0.05300   0.18300    0.02360    1     1;
171 105  108     0.02610   0.07030    0.00922    1     1;
172 106  107     0.05300   0.18300    0.02360    1     1;
173 108  109     0.01050   0.02880    0.00380    1     1;
174 103  110     0.03906   0.18130    0.02305    1     1;
175 109  110     0.02780   0.07620    0.01010    1     1;
176 110  111     0.02200   0.07550    0.01000    1     1;
177 110  112     0.02470   0.06400    0.03100    1     1;
178  17  113     0.00913   0.03010    0.00384    1     1;
179  32  113     0.06150   0.20300    0.02590    1     1;
180  32  114     0.01350   0.06120    0.00814    1     1;
181  27  115     0.01640   0.07410    0.00986    1     1;
182 114  115     0.00230   0.01040    0.00138    1     1;
183  68  116     0.00034   0.00405    0.08200    1     1;
184  12  117     0.03290   0.14000    0.01790    1     1;
185  75  118     0.01450   0.04810    0.00599    1     1;
186  76  118     0.01640   0.05440    0.00678    1     1];

% mul=1.5581;
% busdata(:,4)=busdata(:,4)*mul;
% busdata(:,5)=busdata(:,5)*mul;
% busdata(:,6)=busdata(:,6)*mul;
% busdata(:,7)=busdata(:,7)*mul;